Version 4
SHEET 1 1044 680
WIRE 272 -32 64 -32
WIRE 560 -32 272 -32
WIRE 272 48 272 -32
WIRE 560 48 560 -32
WIRE 64 128 64 -32
WIRE 272 176 272 128
WIRE 320 176 272 176
WIRE 560 176 560 128
WIRE 608 176 560 176
WIRE 272 208 272 176
WIRE 560 208 560 176
WIRE 560 336 560 288
WIRE 64 448 64 208
WIRE 272 448 272 288
WIRE 272 448 64 448
WIRE 560 448 560 416
WIRE 560 448 272 448
FLAG 272 448 0
FLAG 320 176 Va
FLAG 608 176 Vb
SYMBOL voltage 64 112 R0
WINDOW 123 0 0 Left 0
WINDOW 39 0 0 Left 0
SYMATTR InstName V1
SYMATTR Value 5V
SYMBOL res 256 32 R0
SYMATTR InstName R1
SYMATTR Value 10k
SYMBOL res 544 32 R0
SYMATTR InstName R2
SYMATTR Value 10k
SYMBOL res 256 192 R0
SYMATTR InstName R3
SYMATTR Value 10k
SYMBOL res 544 320 R0
SYMATTR InstName R4
SYMATTR Value 10k
SYMBOL res 544 192 R0
SYMATTR InstName R5
SYMATTR Value {R}
TEXT 30 472 Left 2 !.op
TEXT 632 200 Left 2 !#.step param R 100 115 5
TEXT 648 232 Left 2 !.step param R 10 20 0.5
TEXT 640 128 Left 2 ;Saiprasad Patil 60001200090
TEXT 648 272 Left 2 !#.step param R 18.52 390.481 10
